$ Spice netlist generated by v2lvs
$ v2016.4_38.25    Tue Jan 3 14:53:59 PST 2017
.INCLUDE "~/Downloads/sky130_fd_sc_hd.spice" 
*.BUSDELIMITER [ 

.SUBCKT DigitalLDOLogic clk rst comp_in out[31] out[30] out[29] out[28] out[27] 
+ out[26] out[25] out[24] out[23] out[22] out[21] out[20] out[19] out[18] 
+ out[17] out[16] out[15] out[14] out[13] out[12] out[11] out[10] out[9] out[8] 
+ out[7] out[6] out[5] out[4] out[3] out[2] out[1] out[0] 
XFE_PHC37_comp_in comp_in VSS VSS VDD VDD FE_PHN37_comp_in sky130_fd_sc_hd__buf_1 
XFE_PHC36_rst rst VSS VSS VDD VDD FE_PHN36_rst sky130_fd_sc_hd__buf_1 
XFE_PHC35_rst FE_PHN36_rst VSS VSS VDD VDD FE_PHN35_rst sky130_fd_sc_hd__dlygate4sd2_1 
XFE_PHC34_comp_in FE_PHN37_comp_in VSS VSS VDD VDD FE_PHN34_comp_in sky130_fd_sc_hd__dlygate4sd2_1 
XFE_PHC33_comp_in comp_in VSS VSS VDD VDD FE_PHN33_comp_in sky130_fd_sc_hd__buf_2 
XFE_PHC32_rst rst VSS VSS VDD VDD FE_PHN32_rst sky130_fd_sc_hd__buf_2 
XCTS_ccl_a_inv_00004 CTS_3 VSS VSS VDD VDD CTS_2 sky130_fd_sc_hd__clkinv_4 
XCTS_ccl_a_inv_00003 CTS_3 VSS VSS VDD VDD CTS_1 sky130_fd_sc_hd__clkinv_4  
XCTS_ccl_a_inv_00002 CTS_3 VSS VSS VDD VDD CTS_5 sky130_fd_sc_hd__clkinv_4  
XCTS_ccl_a_inv_00001 CTS_3 VSS VSS VDD VDD CTS_4 sky130_fd_sc_hd__clkinv_4 
XCTS_ccl_a_inv_00005 clk VSS VSS VDD VDD CTS_3 sky130_fd_sc_hd__clkinv_16 
XFE_OFC31_out_0 FE_OFN31_out_0 VSS VSS VDD VDD out[0] sky130_fd_sc_hd__buf_8 
XFE_OFC30_out_1 FE_OFN30_out_1 VSS VSS VDD VDD out[1] sky130_fd_sc_hd__buf_8  
XFE_OFC29_out_2 FE_OFN29_out_2 VSS VSS VDD VDD out[2] sky130_fd_sc_hd__buf_8 
XFE_OFC28_out_3 FE_OFN28_out_3 VSS VSS VDD VDD out[3] sky130_fd_sc_hd__buf_8  
XFE_OFC27_out_4 FE_OFN27_out_4 VSS VSS VDD VDD out[4] sky130_fd_sc_hd__buf_8  
XFE_OFC26_out_5 FE_OFN26_out_5 VSS VSS VDD VDD out[5] sky130_fd_sc_hd__buf_8  
XFE_OFC25_out_6 FE_OFN25_out_6 VSS VSS VDD VDD out[6] sky130_fd_sc_hd__buf_8  
XFE_OFC24_out_7 FE_OFN24_out_7 VSS VSS VDD VDD out[7] sky130_fd_sc_hd__buf_8 
XFE_OFC23_out_8 FE_OFN23_out_8 VSS VSS VDD VDD out[8] sky130_fd_sc_hd__buf_8 
XFE_OFC22_out_9 FE_OFN22_out_9 VSS VSS VDD VDD out[9] sky130_fd_sc_hd__buf_8  
XFE_OFC21_out_10 FE_OFN21_out_10 VSS VSS VDD VDD out[10] sky130_fd_sc_hd__buf_8  
XFE_OFC20_out_11 FE_OFN20_out_11 VSS VSS VDD VDD out[11] sky130_fd_sc_hd__buf_8  
XFE_OFC19_out_12 FE_OFN19_out_12 VSS VSS VDD VDD out[12] sky130_fd_sc_hd__buf_8  
XFE_OFC18_out_13 FE_OFN18_out_13 VSS VSS VDD VDD out[13] sky130_fd_sc_hd__buf_8  
XFE_OFC17_out_14 FE_OFN17_out_14 VSS VSS VDD VDD out[14] sky130_fd_sc_hd__buf_8  
XFE_OFC16_out_15 FE_OFN16_out_15 VSS VSS VDD VDD out[15] sky130_fd_sc_hd__buf_8 
XFE_OFC15_out_16 FE_OFN15_out_16 VSS VSS VDD VDD out[16] sky130_fd_sc_hd__buf_8 
XFE_OFC14_out_17 FE_OFN14_out_17 VSS VSS VDD VDD out[17] sky130_fd_sc_hd__buf_8  
XFE_OFC13_out_18 FE_OFN13_out_18 VSS VSS VDD VDD out[18] sky130_fd_sc_hd__buf_8 
XFE_OFC12_out_19 FE_OFN12_out_19 VSS VSS VDD VDD out[19] sky130_fd_sc_hd__buf_8 
XFE_OFC11_out_20 FE_OFN11_out_20 VSS VSS VDD VDD out[20] sky130_fd_sc_hd__buf_8 
XFE_OFC10_out_21 FE_OFN10_out_21 VSS VSS VDD VDD out[21] sky130_fd_sc_hd__buf_8 
XFE_OFC9_out_22 FE_OFN9_out_22 VSS VSS VDD VDD out[22] sky130_fd_sc_hd__buf_8 
XFE_OFC8_out_23 FE_OFN8_out_23 VSS VSS VDD VDD out[23] sky130_fd_sc_hd__buf_8 
XFE_OFC7_out_24 FE_OFN7_out_24 VSS VSS VDD VDD out[24] sky130_fd_sc_hd__buf_8 
XFE_OFC6_out_25 FE_OFN6_out_25 VSS VSS VDD VDD out[25] sky130_fd_sc_hd__buf_8 
XFE_OFC5_out_26 FE_OFN5_out_26 VSS VSS VDD VDD out[26] sky130_fd_sc_hd__buf_8 
XFE_OFC4_out_27 FE_OFN4_out_27 VSS VSS VDD VDD out[27] sky130_fd_sc_hd__buf_8
XFE_OFC3_out_28 FE_OFN3_out_28 VSS VSS VDD VDD out[28] sky130_fd_sc_hd__buf_8 
XFE_OFC2_out_29 FE_OFN2_out_29 VSS VSS VDD VDD out[29] sky130_fd_sc_hd__buf_8 
XFE_OFC1_out_30 FE_OFN1_out_30 VSS VSS VDD VDD out[30] sky130_fd_sc_hd__buf_8  
XFE_OFC0_out_31 FE_OFN0_out_31 VSS VSS VDD VDD out[31] sky130_fd_sc_hd__buf_8 
Xpass_reg[30] CTS_5 n_65 VSS VSS VDD VDD FE_OFN1_out_30 sky130_fd_sc_hd__dfxtp_1 
Xg525__2398 FE_OFN0_out_31 n_62 FE_OFN2_out_29 FE_PHN37_comp_in FE_PHN36_rst VSS VSS VDD VDD n_65 sky130_fd_sc_hd__a221o_1  
Xpass_reg[21] CTS_2 n_61 VSS VSS VDD VDD FE_OFN10_out_21 sky130_fd_sc_hd__dfxtp_1 
Xpass_reg[14] CTS_5 n_52 VSS VSS VDD VDD FE_OFN17_out_14 sky130_fd_sc_hd__dfxtp_1 
Xpass_reg[1] CTS_4 n_55 VSS VSS VDD VDD FE_OFN30_out_1 sky130_fd_sc_hd__dfxtp_1  
Xpass_reg[18] CTS_4 n_35 VSS VSS VDD VDD FE_OFN13_out_18 sky130_fd_sc_hd__dfxtp_1  
Xpass_reg[19] CTS_2 n_56 VSS VSS VDD VDD FE_OFN12_out_19 sky130_fd_sc_hd__dfxtp_1 
Xpass_reg[20] CTS_2 n_53 VSS VSS VDD VDD FE_OFN11_out_20 sky130_fd_sc_hd__dfxtp_1  
Xpass_reg[7] CTS_1 n_44 VSS VSS VDD VDD FE_OFN24_out_7 sky130_fd_sc_hd__dfxtp_1  
Xpass_reg[17] CTS_4 n_46 VSS VSS VDD VDD FE_OFN14_out_17 sky130_fd_sc_hd__dfxtp_1 
Xpass_reg[22] CTS_2 n_47 VSS VSS VDD VDD FE_OFN9_out_22 sky130_fd_sc_hd__dfxtp_1 
Xpass_reg[10] CTS_1 n_43 VSS VSS VDD VDD FE_OFN21_out_10 sky130_fd_sc_hd__dfxtp_1  
Xpass_reg[8] CTS_1 n_41 VSS VSS VDD VDD FE_OFN23_out_8 sky130_fd_sc_hd__dfxtp_1 
Xpass_reg[23] CTS_2 n_39 VSS VSS VDD VDD FE_OFN8_out_23 sky130_fd_sc_hd__dfxtp_1  
Xpass_reg[24] CTS_1 n_38 VSS VSS VDD VDD FE_OFN7_out_24 sky130_fd_sc_hd__dfxtp_1 
Xpass_reg[25] CTS_1 n_36 VSS VSS VDD VDD FE_OFN6_out_25 sky130_fd_sc_hd__dfxtp_1  
Xpass_reg[26] CTS_1 n_42 VSS VSS VDD VDD FE_OFN5_out_26 sky130_fd_sc_hd__dfxtp_1  
Xpass_reg[6] CTS_1 n_40 VSS VSS VDD VDD FE_OFN25_out_6 sky130_fd_sc_hd__dfxtp_1  
Xpass_reg[3] CTS_4 n_54 VSS VSS VDD VDD FE_OFN28_out_3 sky130_fd_sc_hd__dfxtp_1  
Xpass_reg[5] CTS_2 n_45 VSS VSS VDD VDD FE_OFN26_out_5 sky130_fd_sc_hd__dfxtp_1  
Xpass_reg[29] CTS_5 n_57 VSS VSS VDD VDD FE_OFN2_out_29 sky130_fd_sc_hd__dfxtp_1  
Xpass_reg[11] CTS_5 n_58 VSS VSS VDD VDD FE_OFN20_out_11 sky130_fd_sc_hd__dfxtp_1 
Xpass_reg[9] CTS_1 n_59 VSS VSS VDD VDD FE_OFN22_out_9 sky130_fd_sc_hd__dfxtp_1  
Xpass_reg[27] CTS_5 n_34 VSS VSS VDD VDD FE_OFN4_out_27 sky130_fd_sc_hd__dfxtp_1  
Xpass_reg[28] CTS_5 n_37 VSS VSS VDD VDD FE_OFN3_out_28 sky130_fd_sc_hd__dfxtp_1 
Xpass_reg[12] CTS_5 n_50 VSS VSS VDD VDD FE_OFN19_out_12 sky130_fd_sc_hd__dfxtp_1  
Xpass_reg[13] CTS_5 n_63 VSS VSS VDD VDD FE_OFN18_out_13 sky130_fd_sc_hd__dfxtp_1  
Xpass_reg[4] CTS_2 n_51 VSS VSS VDD VDD FE_OFN27_out_4 sky130_fd_sc_hd__dfxtp_1  
Xpass_reg[15] CTS_1 n_49 VSS VSS VDD VDD FE_OFN16_out_15 sky130_fd_sc_hd__dfxtp_1  
Xpass_reg[16] CTS_4 n_48 VSS VSS VDD VDD FE_OFN15_out_16 sky130_fd_sc_hd__dfxtp_1 
Xpass_reg[2] CTS_4 n_60 VSS VSS VDD VDD FE_OFN29_out_2 sky130_fd_sc_hd__dfxtp_1  
Xpass_reg[31] CTS_5 n_33 VSS VSS VDD VDD FE_OFN0_out_31 sky130_fd_sc_hd__dfxtp_1 
Xg578__5107 FE_OFN17_out_14 n_62 FE_OFN19_out_12 FE_PHN37_comp_in FE_PHN36_rst VSS VSS VDD VDD n_63 sky130_fd_sc_hd__a221o_1 
Xg556__6260 FE_OFN9_out_22 n_62 FE_OFN11_out_20 FE_PHN33_comp_in FE_PHN32_rst VSS VSS VDD VDD n_61 sky130_fd_sc_hd__a221o_1 
Xg575__4319 FE_OFN28_out_3 n_62 FE_OFN30_out_1 FE_PHN33_comp_in FE_PHN32_rst VSS VSS VDD VDD n_60 sky130_fd_sc_hd__a221o_1  
Xg557__8428 FE_OFN21_out_10 n_62 FE_OFN23_out_8 FE_PHN33_comp_in FE_PHN32_rst VSS VSS VDD VDD n_59 sky130_fd_sc_hd__a221o_1 
Xg576__5526 FE_OFN19_out_12 n_62 FE_OFN21_out_10 FE_PHN33_comp_in FE_PHN32_rst VSS VSS VDD VDD n_58 sky130_fd_sc_hd__a221o_1 
Xg577__6783 FE_OFN1_out_30 n_62 FE_OFN3_out28 FE_PHN37_comp_in FE_PHN36_rst VSS VSS VDD VDD n_57 sky130_fd_sc_hd__a221o_1 
Xg558__3680 FE_OFN11_out_20 n_62 FE_OFN13_out_18 FE_PHN33_comp_in FE_PHN32_rst VSS VSS VDD VDD n_56 sky130_fd_sc_hd__a221o_1 
Xg574__1617 FE_OFN29_out_2 n_62 FE_OFN31_out_0 FE_PHN33_comp_in FE_PHN32_rst VSS VSS VDD VDD n_55 sky130_fd_sc_hd__a221o_1  
Xg579__2802 FE_OFN27_out_4 n_62 FE_OFN29_out_2 FE_PHN33_comp_in FE_PHN32_rst VSS VSS VDD VDD n_54 sky130_fd_sc_hd__a221o_1 
Xg559__1705 FE_OFN10_out_21 n_62 FE_OFN12_out_19 FE_PHN33_comp_in FE_PHN32_rst VSS VSS VDD VDD n_53 sky130_fd_sc_hd__a221o_1  
Xg580__5122 FE_OFN16_out_15 n_62 FE_OFN18_out_13 FE_PHN33_comp_in FE_PHN32_rst VSS VSS VDD VDD n_52 sky130_fd_sc_hd__a221o_1 
Xg581__8246 FE_OFN26_out_5 n_62 FE_OFN28_out_3 FE_PHN33_comp_in FE_PHN32_rst VSS VSS VDD VDD n_51 sky130_fd_sc_hd__a221o_1 
Xg560__7098 FE_OFN18_out_13 n_62 FE_OFN20_out_11 FE_PHN37_comp_in FE_PHN36_rst VSS VSS VDD VDD n_50 sky130_fd_sc_hd__a221o_1 
Xg582__6131 FE_OFN15_out_16 n_62 FE_OFN17_out_14 FE_PHN33_comp_in FE_PHN32_rst VSS VSS VDD VDD n_49 sky130_fd_sc_hd__a221o_1  
Xg583__1881 FE_OFN14_out_17 n_62 FE_OFN16_out_15 FE_PHN33_comp_in FE_PHN32_rst VSS VSS VDD VDD n_48 sky130_fd_sc_hd__a221o_1 
Xg565__5115 FE_OFN8_out_23 n_62 FE_OFN10_out_21 FE_PHN33_comp_in FE_PHN32_rst VSS VSS VDD VDD n_47 sky130_fd_sc_hd__a221o_1 
Xg584__7482 FE_OFN13_out_18 n_62 FE_OFN15_out_16 FE_PHN33_comp_in FE_PHN32_rst VSS VSS VDD VDD n_46 sky130_fd_sc_hd__a221o_1 
Xg585__4733 FE_OFN25_out_6 n_62 FE_OFN27_out_4 FE_PHN33_comp_in FE_PHN32_rst VSS VSS VDD VDD n_45 sky130_fd_sc_hd__a221o_1  
Xg562__6161 FE_OFN23_out_8 n_62 FE_OFN25_out_6 FE_PHN33_comp_in FE_PHN32_rst VSS VSS VDD VDD n_44 sky130_fd_sc_hd__a221o_1 
Xg586__9315 FE_OFN20_out_11 n_62 FE_OFN22_out_9 FE_PHN33_comp_in FE_PHN32_rst VSS VSS VDD VDD n_43 sky130_fd_sc_hd__a221o_1  
Xg563__9945 FE_OFN4_out_27 n_62 FE_OFN6_out_25 FE_PHN33_comp_in FE_PHN32_rst VSS VSS VDD VDD n_42 sky130_fd_sc_hd__a221o_1 
Xg564__2883 FE_OFN22_out_9 n_62 FE_OFN24_out_7 FE_PHN33_comp_in FE_PHN32_rst VSS VSS VDD VDD n_41 sky130_fd_sc_hd__a221o_1 
Xg561__2346 FE_OFN24_out_7 n_62 FE_OFN26_out_5 FE_PHN33_comp_in FE_PHN32_rst VSS VSS VDD VDD n_40 sky130_fd_sc_hd__a221o_1 
Xg566__1666 FE_OFN7_out_24 n_62 FE_OFN9_out_22 FE_PHN33_comp_in FE_PHN32_rst VSS VSS VDD VDD n_39 sky130_fd_sc_hd__a221o_1
Xg567__7410 FE_OFN6_out_25 n_62 FE_OFN8_out_23 FE_PHN33_comp_in FE_PHN32_rst VSS VSS VDD VDD n_38 sky130_fd_sc_hd__a221o_1 
Xg573__6417 FE_OFN2_out_29 n_62 FE_OFN4_out_27 FE_PHN33_comp_in FE_PHN32_rst VSS VSS VDD VDD n_37 sky130_fd_sc_hd__a221o_1 
Xg568__5477 FE_OFN5_out_26 n_62 FE_OFN7_out_24 FE_PHN33_comp_in FE_PHN32_rst VSS VSS VDD VDD n_36 sky130_fd_sc_hd__a221o_1 
Xg571__2398 FE_OFN12_out_19 n_62 FE_OFN14_out_17 FE_PHN33_comp_in FE_PHN32_rst VSS VSS VDD VDD n_35 sky130_fd_sc_hd__a221o_1 
Xg572__5107 FE_OFN3_out_28 n_62 FE_OFN5_out_26 FE_PHN33_comp_in FE_PHN32_rst VSS VSS VDD VDD n_34 sky130_fd_sc_hd__a221o_1 
Xpass_reg[0] CTS_4 n_32 VSS VSS VDD VDD FE_OFN31_out_0 sky130_fd_sc_hd__dfxtp_1  
Xg587__6260 FE_OFN1_out_30 FE_PHN34_comp_in FE_PHN35_rst VSS VSS VDD VDD n_33 sky130_fd_sc_hd__a21o_1  
Xg588__4319 FE_PHN33_comp_in FE_PHN32_rst FE_OFN30_out_1 VSS VSS VDD VDD n_32 sky130_fd_sc_hd__or3_1 
Xg604 comp_in VSS VSS VDD VDD n_62 sky130_fd_sc_hd__inv_2 
XFILLER_AO_T_2_1 VSS VSS VDD VDD sky130_fd_sc_hd__decap_6  
 
XFILLER_AO_T_2_2 VSS VSS VDD VDD sky130_fd_sc_hd__decap_3  
 
XFILLER_AO_T_2_3 VSS VSS VDD VDD sky130_fd_sc_hd__decap_6  
 
XFILLER_AO_T_2_4 VSS VSS VDD VDD sky130_fd_sc_hd__decap_8  
 
XFILLER_AO_T_2_5 VSS VSS VDD VDD sky130_fd_sc_hd__decap_4  
 
XFILLER_AO_T_2_6 VSS VSS VDD VDD sky130_fd_sc_hd__decap_3  
 
XFILLER_AO_T_2_7 VSS VSS VDD VDD sky130_fd_sc_hd__decap_8  
 
XFILLER_AO_T_2_8 VSS VSS VDD VDD sky130_fd_sc_hd__decap_6  
 
XFILLER_AO_T_2_9 VSS VSS VDD VDD sky130_fd_sc_hd__decap_3  
 
XFILLER_AO_T_2_10 VSS VSS VDD VDD sky130_fd_sc_hd__decap_4  
 
XFILLER_AO_T_2_11 VSS VSS VDD VDD sky130_fd_sc_hd__decap_3  
 
XFILLER_AO_T_2_12 VSS VSS VDD VDD sky130_fd_sc_hd__decap_4  
 
XFILLER_AO_T_2_13 VSS VSS VDD VDD sky130_fd_sc_hd__decap_3  
 
XFILLER_AO_T_2_14 VSS VSS VDD VDD sky130_fd_sc_hd__decap_6  
 
XFILLER_AO_T_2_15 VSS VSS VDD VDD sky130_fd_sc_hd__decap_12  
 
XFILLER_AO_T_2_16 VSS VSS VDD VDD sky130_fd_sc_hd__decap_4  
 
XFILLER_AO_T_2_17 VSS VSS VDD VDD sky130_fd_sc_hd__decap_3  
 
XFILLER_AO_T_2_18 VSS VSS VDD VDD sky130_fd_sc_hd__decap_12  
 
XFILLER_AO_T_2_19 VSS VSS VDD VDD sky130_fd_sc_hd__decap_4  
 
XFILLER_AO_T_2_20 VSS VSS VDD VDD sky130_fd_sc_hd__decap_3  
 
XFILLER_AO_T_2_21 VSS VSS VDD VDD sky130_fd_sc_hd__decap_4  
 
XFILLER_AO_T_2_22 VSS VSS VDD VDD sky130_fd_sc_hd__decap_3  
 
XFILLER_AO_T_2_23 VSS VSS VDD VDD sky130_fd_sc_hd__decap_8  
 
XFILLER_AO_T_2_24 VSS VSS VDD VDD sky130_fd_sc_hd__decap_3  
 
XFILLER_AO_T_2_25 VSS VSS VDD VDD sky130_fd_sc_hd__decap_6  
 
XFILLER_AO_T_2_26 VSS VSS VDD VDD sky130_fd_sc_hd__decap_3  
 
XFILLER_AO_T_2_27 VSS VSS VDD VDD sky130_fd_sc_hd__decap_12  
 
XFILLER_AO_T_2_28 VSS VSS VDD VDD sky130_fd_sc_hd__decap_12  
 
XFILLER_AO_T_2_29 VSS VSS VDD VDD sky130_fd_sc_hd__decap_4  
 
XFILLER_AO_T_2_30 VSS VSS VDD VDD sky130_fd_sc_hd__decap_3  
 
XFILLER_AO_T_2_31 VSS VSS VDD VDD sky130_fd_sc_hd__decap_8  
 
XFILLER_AO_T_2_32 VSS VSS VDD VDD sky130_fd_sc_hd__decap_3  
 
XFILLER_AO_T_2_33 VSS VSS VDD VDD sky130_fd_sc_hd__decap_12  
 
XFILLER_AO_T_2_34 VSS VSS VDD VDD sky130_fd_sc_hd__decap_3  
 
XFILLER_AO_T_2_35 VSS VSS VDD VDD sky130_fd_sc_hd__decap_6  
 
XFILLER_AO_T_2_36 VSS VSS VDD VDD sky130_fd_sc_hd__decap_6  
 
XFILLER_AO_T_2_37 VSS VSS VDD VDD sky130_fd_sc_hd__decap_6  
 
XFILLER_AO_T_2_38 VSS VSS VDD VDD sky130_fd_sc_hd__decap_3  
 
XFILLER_AO_T_2_39 VSS VSS VDD VDD sky130_fd_sc_hd__decap_8  
 
XFILLER_AO_T_2_40 VSS VSS VDD VDD sky130_fd_sc_hd__decap_6  
 
XFILLER_AO_T_2_41 VSS VSS VDD VDD sky130_fd_sc_hd__decap_12  
 
XFILLER_AO_T_2_42 VSS VSS VDD VDD sky130_fd_sc_hd__decap_12  
 
XFILLER_AO_T_2_43 VSS VSS VDD VDD sky130_fd_sc_hd__decap_4  
 
XFILLER_AO_T_2_44 VSS VSS VDD VDD sky130_fd_sc_hd__decap_3  
 
XFILLER_AO_T_2_45 VSS VSS VDD VDD sky130_fd_sc_hd__decap_12  
 
XFILLER_AO_T_2_46 VSS VSS VDD VDD sky130_fd_sc_hd__decap_12  
 
XFILLER_AO_T_2_47 VSS VSS VDD VDD sky130_fd_sc_hd__decap_4  
 
XFILLER_AO_T_2_48 VSS VSS VDD VDD sky130_fd_sc_hd__decap_3  
 
XFILLER_AO_T_2_49 VSS VSS VDD VDD sky130_fd_sc_hd__decap_12  
 
XFILLER_AO_T_2_50 VSS VSS VDD VDD sky130_fd_sc_hd__decap_8  
 
XFILLER_AO_T_2_51 VSS VSS VDD VDD sky130_fd_sc_hd__decap_3  
 
XFILLER_AO_T_2_52 VSS VSS VDD VDD sky130_fd_sc_hd__decap_3  
 
XFILLER_AO_T_2_53 VSS VSS VDD VDD sky130_fd_sc_hd__decap_12  
 
XFILLER_AO_T_2_54 VSS VSS VDD VDD sky130_fd_sc_hd__decap_4  
 
XFILLER_AO_T_2_55 VSS VSS VDD VDD sky130_fd_sc_hd__decap_3  
 
XFILLER_AO_T_2_56 VSS VSS VDD VDD sky130_fd_sc_hd__decap_12  
 
XFILLER_AO_T_2_57 VSS VSS VDD VDD sky130_fd_sc_hd__decap_12  
 
XFILLER_AO_T_2_58 VSS VSS VDD VDD sky130_fd_sc_hd__decap_4  
 
XFILLER_AO_T_2_59 VSS VSS VDD VDD sky130_fd_sc_hd__decap_3  
 
XFILLER_AO_T_2_60 VSS VSS VDD VDD sky130_fd_sc_hd__decap_12  
 
XFILLER_AO_T_2_61 VSS VSS VDD VDD sky130_fd_sc_hd__decap_6  
 
XFILLER_AO_T_2_62 VSS VSS VDD VDD sky130_fd_sc_hd__decap_6  
 
XFILLER_AO_T_2_63 VSS VSS VDD VDD sky130_fd_sc_hd__decap_4  
 
XFILLER_AO_T_2_64 VSS VSS VDD VDD sky130_fd_sc_hd__decap_12  
 
XFILLER_AO_T_2_65 VSS VSS VDD VDD sky130_fd_sc_hd__decap_8  
 
XFILLER_AO_T_2_66 VSS VSS VDD VDD sky130_fd_sc_hd__decap_6  
 
XFILLER_AO_T_2_67 VSS VSS VDD VDD sky130_fd_sc_hd__decap_6  
 
XFILLER_AO_T_2_68 VSS VSS VDD VDD sky130_fd_sc_hd__decap_3  
 
XFILLER_AO_T_2_69 VSS VSS VDD VDD sky130_fd_sc_hd__decap_12  
 
XFILLER_AO_T_2_70 VSS VSS VDD VDD sky130_fd_sc_hd__decap_12  
 
XFILLER_AO_T_2_71 VSS VSS VDD VDD sky130_fd_sc_hd__decap_4  
 
XFILLER_AO_T_2_72 VSS VSS VDD VDD sky130_fd_sc_hd__decap_3  
 
XFILLER_AO_T_2_73 VSS VSS VDD VDD sky130_fd_sc_hd__decap_4  
 
XFILLER_AO_T_2_74 VSS VSS VDD VDD sky130_fd_sc_hd__decap_3  
 
XFILLER_AO_T_2_75 VSS VSS VDD VDD sky130_fd_sc_hd__decap_8  
 
XFILLER_AO_T_2_76 VSS VSS VDD VDD sky130_fd_sc_hd__decap_12  
 
XFILLER_AO_T_2_77 VSS VSS VDD VDD sky130_fd_sc_hd__decap_3  
 
XFILLER_AO_T_2_78 VSS VSS VDD VDD sky130_fd_sc_hd__decap_3  
 
XFILLER_AO_T_2_79 VSS VSS VDD VDD sky130_fd_sc_hd__decap_12  
 
XFILLER_AO_T_2_80 VSS VSS VDD VDD sky130_fd_sc_hd__decap_3  
 
XFILLER_AO_T_2_81 VSS VSS VDD VDD sky130_fd_sc_hd__decap_8  
 
XFILLER_AO_T_2_82 VSS VSS VDD VDD sky130_fd_sc_hd__decap_3  
 
XFILLER_AO_T_2_83 VSS VSS VDD VDD sky130_fd_sc_hd__decap_4  
 
XFILLER_AO_T_2_84 VSS VSS VDD VDD sky130_fd_sc_hd__decap_4  
 
XFILLER_AO_T_2_85 VSS VSS VDD VDD sky130_fd_sc_hd__decap_3  
 
XFILLER_AO_T_2_86 VSS VSS VDD VDD sky130_fd_sc_hd__decap_12  
 
XFILLER_AO_T_2_87 VSS VSS VDD VDD sky130_fd_sc_hd__decap_3  
 
XFILLER_AO_T_2_88 VSS VSS VDD VDD sky130_fd_sc_hd__decap_12  
 
XFILLER_AO_T_2_89 VSS VSS VDD VDD sky130_fd_sc_hd__decap_3  
 
XFILLER_AO_T_2_90 VSS VSS VDD VDD sky130_fd_sc_hd__decap_12  
 
XFILLER_AO_T_2_91 VSS VSS VDD VDD sky130_fd_sc_hd__decap_3  
 
XFILLER_AO_T_2_92 VSS VSS VDD VDD sky130_fd_sc_hd__decap_4  
 
XFILLER_AO_T_2_93 VSS VSS VDD VDD sky130_fd_sc_hd__decap_3  
 
XFILLER_AO_T_2_94 VSS VSS VDD VDD sky130_fd_sc_hd__decap_6  
 
XFILLER_AO_T_2_95 VSS VSS VDD VDD sky130_fd_sc_hd__decap_4  
 
XFILLER_AO_T_2_96 VSS VSS VDD VDD sky130_fd_sc_hd__decap_6  
 
XFILLER_AO_T_2_97 VSS VSS VDD VDD sky130_fd_sc_hd__decap_3  
 
XFILLER_AO_T_2_98 VSS VSS VDD VDD sky130_fd_sc_hd__decap_8  
 
XFILLER_AO_T_2_99 VSS VSS VDD VDD sky130_fd_sc_hd__decap_3  
 
XFILLER_AO_T_2_100 VSS VSS VDD VDD sky130_fd_sc_hd__decap_8  
 
XFILLER_AO_T_2_101 VSS VSS VDD VDD sky130_fd_sc_hd__decap_8  
 
XFILLER_AO_T_2_102 VSS VSS VDD VDD sky130_fd_sc_hd__decap_4  
 
XFILLER_AO_T_2_103 VSS VSS VDD VDD sky130_fd_sc_hd__decap_3  
 
XFILLER_AO_T_2_104 VSS VSS VDD VDD sky130_fd_sc_hd__decap_3  
 
XFILLER_AO_T_2_105 VSS VSS VDD VDD sky130_fd_sc_hd__decap_6  
 
XFILLER_AO_T_2_106 VSS VSS VDD VDD sky130_fd_sc_hd__decap_4  
 
XFILLER_AO_T_2_107 VSS VSS VDD VDD sky130_fd_sc_hd__decap_3  
 
XFILLER_AO_T_2_108 VSS VSS VDD VDD sky130_fd_sc_hd__decap_3  
 
XFILLER_AO_T_2_109 VSS VSS VDD VDD sky130_fd_sc_hd__decap_4  
 
XFILLER_AO_T_2_110 VSS VSS VDD VDD sky130_fd_sc_hd__decap_3  
 
XFILLER_AO_T_2_111 VSS VSS VDD VDD sky130_fd_sc_hd__decap_6  
 
XFILLER_AO_T_2_112 VSS VSS VDD VDD sky130_fd_sc_hd__decap_4  
 
XFILLER_AO_T_2_113 VSS VSS VDD VDD sky130_fd_sc_hd__decap_3  
 
XFILLER_AO_T_2_114 VSS VSS VDD VDD sky130_fd_sc_hd__decap_6  
 
XFILLER_AO_T_2_115 VSS VSS VDD VDD sky130_fd_sc_hd__decap_4  
 
XFILLER_AO_T_2_116 VSS VSS VDD VDD sky130_fd_sc_hd__decap_3  
 
XFILLER_AO_T_2_117 VSS VSS VDD VDD sky130_fd_sc_hd__decap_3  
 
XFILLER_AO_T_2_118 VSS VSS VDD VDD sky130_fd_sc_hd__decap_6  
 
XFILLER_AO_T_2_119 VSS VSS VDD VDD sky130_fd_sc_hd__decap_8  
 
XFILLER_AO_T_2_120 VSS VSS VDD VDD sky130_fd_sc_hd__decap_3  
 
XFILLER_AO_T_2_121 VSS VSS VDD VDD sky130_fd_sc_hd__decap_12  
 
XFILLER_AO_T_2_122 VSS VSS VDD VDD sky130_fd_sc_hd__decap_3  
 
XFILLER_AO_T_2_123 VSS VSS VDD VDD sky130_fd_sc_hd__decap_3  
 
XFILLER_AO_T_2_124 VSS VSS VDD VDD sky130_fd_sc_hd__decap_12  
 
XFILLER_AO_T_2_125 VSS VSS VDD VDD sky130_fd_sc_hd__decap_8  
 
XFILLER_AO_T_2_126 VSS VSS VDD VDD sky130_fd_sc_hd__decap_6  
 
XFILLER_AO_T_2_127 VSS VSS VDD VDD sky130_fd_sc_hd__decap_4  
 
XFILLER_AO_T_2_128 VSS VSS VDD VDD sky130_fd_sc_hd__decap_12  
 
XFILLER_AO_T_2_129 VSS VSS VDD VDD sky130_fd_sc_hd__decap_8  
 
XFILLER_AO_T_2_130 VSS VSS VDD VDD sky130_fd_sc_hd__decap_6  
 
XFILLER_AO_T_2_131 VSS VSS VDD VDD sky130_fd_sc_hd__decap_6  
 
XFILLER_AO_T_2_132 VSS VSS VDD VDD sky130_fd_sc_hd__decap_3  
 
XFILLER_AO_T_2_133 VSS VSS VDD VDD sky130_fd_sc_hd__decap_3  
 
XFILLER_AO_T_2_134 VSS VSS VDD VDD sky130_fd_sc_hd__decap_8  
 
XFILLER_AO_T_2_135 VSS VSS VDD VDD sky130_fd_sc_hd__decap_6  
 
XFILLER_AO_T_2_136 VSS VSS VDD VDD sky130_fd_sc_hd__decap_6  
 
XFILLER_AO_T_2_137 VSS VSS VDD VDD sky130_fd_sc_hd__decap_12  
 
XFILLER_AO_T_2_138 VSS VSS VDD VDD sky130_fd_sc_hd__decap_12  
 
XFILLER_AO_T_2_139 VSS VSS VDD VDD sky130_fd_sc_hd__decap_4  
 
XFILLER_AO_T_2_140 VSS VSS VDD VDD sky130_fd_sc_hd__decap_3  
 
XFILLER_AO_T_2_141 VSS VSS VDD VDD sky130_fd_sc_hd__decap_12  
 
XFILLER_AO_T_2_142 VSS VSS VDD VDD sky130_fd_sc_hd__decap_8  
 
XFILLER_AO_T_2_143 VSS VSS VDD VDD sky130_fd_sc_hd__decap_3  
 
XFILLER_AO_T_2_144 VSS VSS VDD VDD sky130_fd_sc_hd__decap_12  
 
XFILLER_AO_T_2_145 VSS VSS VDD VDD sky130_fd_sc_hd__decap_6  
 
XFILLER_AO_T_2_146 VSS VSS VDD VDD sky130_fd_sc_hd__decap_6  
 
XFILLER_AO_T_2_147 VSS VSS VDD VDD sky130_fd_sc_hd__decap_4  
 
XFILLER_AO_T_2_148 VSS VSS VDD VDD sky130_fd_sc_hd__decap_3  
 
XFILLER_AO_T_2_149 VSS VSS VDD VDD sky130_fd_sc_hd__decap_8  
 
XFILLER_AO_T_2_150 VSS VSS VDD VDD sky130_fd_sc_hd__decap_3  
 
XFILLER_AO_T_2_151 VSS VSS VDD VDD sky130_fd_sc_hd__decap_4  
 
XFILLER_AO_T_2_152 VSS VSS VDD VDD sky130_fd_sc_hd__decap_6  
 
XFILLER_AO_T_2_153 VSS VSS VDD VDD sky130_fd_sc_hd__decap_4  
 
XFILLER_AO_T_2_154 VSS VSS VDD VDD sky130_fd_sc_hd__decap_8  
 
XFILLER_AO_T_2_155 VSS VSS VDD VDD sky130_fd_sc_hd__decap_3  
 
XFILLER_AO_T_2_156 VSS VSS VDD VDD sky130_fd_sc_hd__decap_8  
 
XFILLER_AO_T_2_157 VSS VSS VDD VDD sky130_fd_sc_hd__decap_6  
 
XFILLER_AO_T_2_158 VSS VSS VDD VDD sky130_fd_sc_hd__decap_12  
 
XFILLER_AO_T_2_159 VSS VSS VDD VDD sky130_fd_sc_hd__decap_4  
 
XFILLER_AO_T_2_160 VSS VSS VDD VDD sky130_fd_sc_hd__decap_3  
 
XFILLER_AO_T_2_161 VSS VSS VDD VDD sky130_fd_sc_hd__decap_12  
 
XFILLER_AO_T_2_162 VSS VSS VDD VDD sky130_fd_sc_hd__decap_8  
 
XFILLER_AO_T_2_163 VSS VSS VDD VDD sky130_fd_sc_hd__decap_6  
 
XFILLER_AO_T_2_164 VSS VSS VDD VDD sky130_fd_sc_hd__decap_6  
 
XFILLER_AO_T_2_165 VSS VSS VDD VDD sky130_fd_sc_hd__decap_3  
 
XFILLER_AO_T_2_166 VSS VSS VDD VDD sky130_fd_sc_hd__decap_12  
 
XFILLER_AO_T_2_167 VSS VSS VDD VDD sky130_fd_sc_hd__decap_12  
 
XFILLER_AO_T_2_168 VSS VSS VDD VDD sky130_fd_sc_hd__decap_4  
 
XFILLER_AO_T_2_169 VSS VSS VDD VDD sky130_fd_sc_hd__decap_3  
 
XFILLER_AO_T_2_170 VSS VSS VDD VDD sky130_fd_sc_hd__decap_8  
 
XFILLER_AO_T_2_171 VSS VSS VDD VDD sky130_fd_sc_hd__decap_3  
 
XFILLER_AO_T_2_172 VSS VSS VDD VDD sky130_fd_sc_hd__decap_12  
 
XFILLER_AO_T_2_173 VSS VSS VDD VDD sky130_fd_sc_hd__decap_12  
 
XFILLER_AO_T_2_174 VSS VSS VDD VDD sky130_fd_sc_hd__decap_6  
 
XFILLER_AO_T_2_175 VSS VSS VDD VDD sky130_fd_sc_hd__decap_8  
 
XFILLER_AO_T_2_176 VSS VSS VDD VDD sky130_fd_sc_hd__decap_6  
 
XFILLER_AO_T_2_177 VSS VSS VDD VDD sky130_fd_sc_hd__decap_3  
 
XFILLER_AO_T_2_178 VSS VSS VDD VDD sky130_fd_sc_hd__decap_6  
 
XFILLER_AO_T_2_179 VSS VSS VDD VDD sky130_fd_sc_hd__decap_3  
 
XFILLER_AO_T_2_180 VSS VSS VDD VDD sky130_fd_sc_hd__decap_6  
 
XFILLER_AO_T_2_181 VSS VSS VDD VDD sky130_fd_sc_hd__decap_6  
 
XFILLER_AO_T_2_182 VSS VSS VDD VDD sky130_fd_sc_hd__decap_6  
 
XFILLER_AO_T_2_183 VSS VSS VDD VDD sky130_fd_sc_hd__decap_4  
 
XFILLER_AO_T_2_184 VSS VSS VDD VDD sky130_fd_sc_hd__decap_3  
 
XFILLER_AO_T_2_185 VSS VSS VDD VDD sky130_fd_sc_hd__decap_6  
 
XFILLER_AO_T_2_186 VSS VSS VDD VDD sky130_fd_sc_hd__decap_4  
 
XFILLER_AO_T_2_187 VSS VSS VDD VDD sky130_fd_sc_hd__decap_12  
 
XFILLER_AO_T_2_188 VSS VSS VDD VDD sky130_fd_sc_hd__decap_4  
 
XFILLER_AO_T_2_189 VSS VSS VDD VDD sky130_fd_sc_hd__decap_3  
 
XFILLER_AO_T_2_190 VSS VSS VDD VDD sky130_fd_sc_hd__decap_12  
 
XFILLER_AO_T_2_191 VSS VSS VDD VDD sky130_fd_sc_hd__decap_12  
 
XFILLER_AO_T_2_192 VSS VSS VDD VDD sky130_fd_sc_hd__decap_4  
 
XFILLER_AO_T_2_193 VSS VSS VDD VDD sky130_fd_sc_hd__decap_3  
 
XFILLER_AO_T_2_194 VSS VSS VDD VDD sky130_fd_sc_hd__decap_3  
 
XFILLER_AO_T_2_195 VSS VSS VDD VDD sky130_fd_sc_hd__decap_6  
 
XFILLER_AO_T_2_196 VSS VSS VDD VDD sky130_fd_sc_hd__decap_6  
 
XFILLER_AO_T_2_197 VSS VSS VDD VDD sky130_fd_sc_hd__decap_12  
 
XFILLER_AO_T_2_198 VSS VSS VDD VDD sky130_fd_sc_hd__decap_12  
 
XFILLER_AO_T_2_199 VSS VSS VDD VDD sky130_fd_sc_hd__decap_4  
 
XFILLER_AO_T_2_200 VSS VSS VDD VDD sky130_fd_sc_hd__decap_3  
 
XFILLER_AO_T_2_201 VSS VSS VDD VDD sky130_fd_sc_hd__decap_12  
 
XFILLER_AO_T_2_202 VSS VSS VDD VDD sky130_fd_sc_hd__decap_12  
 
XFILLER_AO_T_2_203 VSS VSS VDD VDD sky130_fd_sc_hd__decap_4  
 
XFILLER_AO_T_2_204 VSS VSS VDD VDD sky130_fd_sc_hd__decap_3  
 
XFILLER_AO_T_2_205 VSS VSS VDD VDD sky130_fd_sc_hd__decap_12  
 
XFILLER_AO_T_2_206 VSS VSS VDD VDD sky130_fd_sc_hd__decap_8  
 
XFILLER_AO_T_2_207 VSS VSS VDD VDD sky130_fd_sc_hd__decap_6  
 
XFILLER_AO_T_2_208 VSS VSS VDD VDD sky130_fd_sc_hd__decap_6  
 
XFILLER_AO_T_2_209 VSS VSS VDD VDD sky130_fd_sc_hd__decap_3  
 
XFILLER_AO_T_2_210 VSS VSS VDD VDD sky130_fd_sc_hd__decap_12  
 
XFILLER_AO_T_2_211 VSS VSS VDD VDD sky130_fd_sc_hd__decap_3  
 
XFILLER_AO_T_2_212 VSS VSS VDD VDD sky130_fd_sc_hd__decap_12  
 
XFILLER_AO_T_2_213 VSS VSS VDD VDD sky130_fd_sc_hd__decap_3  
 
XFILLER_AO_T_2_214 VSS VSS VDD VDD sky130_fd_sc_hd__decap_12  
 
XFILLER_AO_T_2_215 VSS VSS VDD VDD sky130_fd_sc_hd__decap_3  
 
XFILLER_AO_T_2_216 VSS VSS VDD VDD sky130_fd_sc_hd__decap_6  
 
XFILLER_AO_T_2_217 VSS VSS VDD VDD sky130_fd_sc_hd__decap_4  
 
XFILLER_AO_T_2_218 VSS VSS VDD VDD sky130_fd_sc_hd__decap_3  
 
XFILLER_AO_T_2_219 VSS VSS VDD VDD sky130_fd_sc_hd__decap_8  
 
XFILLER_AO_T_2_220 VSS VSS VDD VDD sky130_fd_sc_hd__decap_4  
 
XFILLER_AO_T_2_221 VSS VSS VDD VDD sky130_fd_sc_hd__decap_3  
 
XFILLER_AO_T_2_222 VSS VSS VDD VDD sky130_fd_sc_hd__decap_12  
 
XFILLER_AO_T_2_223 VSS VSS VDD VDD sky130_fd_sc_hd__decap_12  
 
XFILLER_AO_T_2_224 VSS VSS VDD VDD sky130_fd_sc_hd__decap_4  
 
XFILLER_AO_T_2_225 VSS VSS VDD VDD sky130_fd_sc_hd__decap_3  
 
XFILLER_AO_T_2_226 VSS VSS VDD VDD sky130_fd_sc_hd__decap_12  
 
XFILLER_AO_T_2_227 VSS VSS VDD VDD sky130_fd_sc_hd__decap_3  
 
XFILLER_AO_T_2_228 VSS VSS VDD VDD sky130_fd_sc_hd__decap_12  
 
XFILLER_AO_T_2_229 VSS VSS VDD VDD sky130_fd_sc_hd__decap_4  
 
XFILLER_AO_T_2_230 VSS VSS VDD VDD sky130_fd_sc_hd__decap_3  
 
XFILLER_AO_T_2_231 VSS VSS VDD VDD sky130_fd_sc_hd__decap_4  
 
XFILLER_AO_T_2_232 VSS VSS VDD VDD sky130_fd_sc_hd__decap_12  
 
XFILLER_AO_T_2_233 VSS VSS VDD VDD sky130_fd_sc_hd__decap_3  
 
XFILLER_AO_T_2_234 VSS VSS VDD VDD sky130_fd_sc_hd__decap_8  
 
XFILLER_AO_T_2_235 VSS VSS VDD VDD sky130_fd_sc_hd__decap_3  
 
XFILLER_AO_T_2_236 VSS VSS VDD VDD sky130_fd_sc_hd__decap_12  
 
XFILLER_AO_T_2_237 VSS VSS VDD VDD sky130_fd_sc_hd__decap_12  
 
XFILLER_AO_T_2_238 VSS VSS VDD VDD sky130_fd_sc_hd__decap_12  
 
XFILLER_AO_T_2_239 VSS VSS VDD VDD sky130_fd_sc_hd__decap_4  
 
XFILLER_AO_T_2_240 VSS VSS VDD VDD sky130_fd_sc_hd__decap_3  
 
XFILLER_AO_T_2_241 VSS VSS VDD VDD sky130_fd_sc_hd__decap_12  
 
XFILLER_AO_T_2_242 VSS VSS VDD VDD sky130_fd_sc_hd__decap_8  
 
XFILLER_AO_T_2_243 VSS VSS VDD VDD sky130_fd_sc_hd__decap_6  
 
XFILLER_AO_T_2_244 VSS VSS VDD VDD sky130_fd_sc_hd__decap_6  
 
XFILLER_AO_T_2_245 VSS VSS VDD VDD sky130_fd_sc_hd__decap_3  
 
XFILLER_AO_T_2_246 VSS VSS VDD VDD sky130_fd_sc_hd__decap_12  
 
XFILLER_AO_T_2_247 VSS VSS VDD VDD sky130_fd_sc_hd__decap_12  
 
XFILLER_AO_T_2_248 VSS VSS VDD VDD sky130_fd_sc_hd__decap_4  
 
XFILLER_AO_T_2_249 VSS VSS VDD VDD sky130_fd_sc_hd__decap_3  
 
XFILLER_AO_T_2_250 VSS VSS VDD VDD sky130_fd_sc_hd__decap_8  
 
XFILLER_AO_T_2_251 VSS VSS VDD VDD sky130_fd_sc_hd__decap_3  
 
XFILLER_AO_T_2_252 VSS VSS VDD VDD sky130_fd_sc_hd__decap_12  
 
XFILLER_AO_T_2_253 VSS VSS VDD VDD sky130_fd_sc_hd__decap_12  
 
XFILLER_AO_T_2_254 VSS VSS VDD VDD sky130_fd_sc_hd__decap_12  
 
XFILLER_AO_T_2_255 VSS VSS VDD VDD sky130_fd_sc_hd__decap_4  
 
XFILLER_AO_T_2_256 VSS VSS VDD VDD sky130_fd_sc_hd__decap_3  
 
XFILLER_AO_T_2_257 VSS VSS VDD VDD sky130_fd_sc_hd__decap_12  
 
XFILLER_AO_T_2_258 VSS VSS VDD VDD sky130_fd_sc_hd__decap_12  
 
XFILLER_AO_T_2_259 VSS VSS VDD VDD sky130_fd_sc_hd__decap_4  
 
XFILLER_AO_T_2_260 VSS VSS VDD VDD sky130_fd_sc_hd__decap_3  
 
XFILLER_AO_T_2_261 VSS VSS VDD VDD sky130_fd_sc_hd__decap_12  
 
XFILLER_AO_T_2_262 VSS VSS VDD VDD sky130_fd_sc_hd__decap_12  
 
XFILLER_AO_T_2_263 VSS VSS VDD VDD sky130_fd_sc_hd__decap_4  
 
XFILLER_AO_T_2_264 VSS VSS VDD VDD sky130_fd_sc_hd__decap_3  
 
XFILLER_AO_T_2_265 VSS VSS VDD VDD sky130_fd_sc_hd__decap_12  
 
XFILLER_AO_T_2_266 VSS VSS VDD VDD sky130_fd_sc_hd__decap_12  
 
XFILLER_AO_T_2_267 VSS VSS VDD VDD sky130_fd_sc_hd__decap_4  
 
XFILLER_AO_T_2_268 VSS VSS VDD VDD sky130_fd_sc_hd__decap_3  
 
XFILLER_AO_T_2_269 VSS VSS VDD VDD sky130_fd_sc_hd__decap_8  
 
XFILLER_AO_T_2_270 VSS VSS VDD VDD sky130_fd_sc_hd__decap_4  
 
XFILLER_AO_T_2_271 VSS VSS VDD VDD sky130_fd_sc_hd__decap_3  
 
XFILLER_AO_T_2_272 VSS VSS VDD VDD sky130_fd_sc_hd__decap_12  
 
XFILLER_AO_T_2_273 VSS VSS VDD VDD sky130_fd_sc_hd__decap_12  
 
XFILLER_AO_T_2_274 VSS VSS VDD VDD sky130_fd_sc_hd__decap_4  
 
XFILLER_AO_T_2_275 VSS VSS VDD VDD sky130_fd_sc_hd__decap_3  
 
XFILLER_AO_T_2_276 VSS VSS VDD VDD sky130_fd_sc_hd__decap_12  
 
XFILLER_AO_T_2_277 VSS VSS VDD VDD sky130_fd_sc_hd__decap_12  
 
XFILLER_AO_T_2_278 VSS VSS VDD VDD sky130_fd_sc_hd__decap_4  
 
XFILLER_AO_T_2_279 VSS VSS VDD VDD sky130_fd_sc_hd__decap_3  
 
XFILLER_AO_T_2_280 VSS VSS VDD VDD sky130_fd_sc_hd__decap_4  
 
XFILLER_AO_T_2_281 VSS VSS VDD VDD sky130_fd_sc_hd__decap_3  
 
XFILLER_AO_T_2_282 VSS VSS VDD VDD sky130_fd_sc_hd__decap_8  
 
XFILLER_AO_T_2_283 VSS VSS VDD VDD sky130_fd_sc_hd__decap_12  
 
XFILLER_AO_T_2_284 VSS VSS VDD VDD sky130_fd_sc_hd__decap_4  
 
XFILLER_AO_T_2_285 VSS VSS VDD VDD sky130_fd_sc_hd__decap_3  
 
XFILLER_AO_T_2_286 VSS VSS VDD VDD sky130_fd_sc_hd__decap_12  
 
XFILLER_AO_T_2_287 VSS VSS VDD VDD sky130_fd_sc_hd__decap_8  
 
XFILLER_AO_T_2_288 VSS VSS VDD VDD sky130_fd_sc_hd__decap_6  
 
XFILLER_AO_T_2_289 VSS VSS VDD VDD sky130_fd_sc_hd__decap_6  
 
XFILLER_AO_T_2_290 VSS VSS VDD VDD sky130_fd_sc_hd__decap_3  
 
XFILLER_AO_T_2_291 VSS VSS VDD VDD sky130_fd_sc_hd__decap_12  
 
XFILLER_AO_T_2_292 VSS VSS VDD VDD sky130_fd_sc_hd__decap_12  
 
XFILLER_AO_T_2_293 VSS VSS VDD VDD sky130_fd_sc_hd__decap_4  
 
XFILLER_AO_T_2_294 VSS VSS VDD VDD sky130_fd_sc_hd__decap_3  
 
XFILLER_AO_T_2_295 VSS VSS VDD VDD sky130_fd_sc_hd__decap_8  
 
XFILLER_AO_T_2_296 VSS VSS VDD VDD sky130_fd_sc_hd__decap_3  
 
XFILLER_AO_T_2_297 VSS VSS VDD VDD sky130_fd_sc_hd__decap_12  
 
XFILLER_AO_T_2_298 VSS VSS VDD VDD sky130_fd_sc_hd__decap_12  
 
XFILLER_AO_T_2_299 VSS VSS VDD VDD sky130_fd_sc_hd__decap_12  
 
XFILLER_AO_T_2_300 VSS VSS VDD VDD sky130_fd_sc_hd__decap_4  
 
XFILLER_AO_T_2_301 VSS VSS VDD VDD sky130_fd_sc_hd__decap_3  
 
XFILLER_AO_T_2_302 VSS VSS VDD VDD sky130_fd_sc_hd__decap_12  
 
XFILLER_AO_T_2_303 VSS VSS VDD VDD sky130_fd_sc_hd__decap_12  
 
XFILLER_AO_T_2_304 VSS VSS VDD VDD sky130_fd_sc_hd__decap_4  
 